40

C -2.46682 -1.70466 0.198649
C -2.62757 -1.04032 -0.976355
C -1.35329 1.91354 1.92983
C 0.399196 -2.21757 -1.97939
C 2.33391 -1.44299 -1.2312
C 2.01348 -1.94505 1.08251
C -1.01888 1.12711 -2.62622
C -1.37204 0.616571 2.56788
C 5.34319e-26 4.82387e-47 2.96992
C -1.87738 2.28573 -0.466591
C 1.84135 -2.33748 -0.234281
C 3.00614 7.90267e-06 0.105867
C -0.771255 -2.29041 1.76831
C 1.75665 2.35027 0.487734
C -0.587843 -1.34075 -2.60988
C 1.00957 1.00563 2.60701
C 2.76137 0.00058354 -1.18921
C 2.14704 1.03266 -1.90151
C -0.608637 2.93803 -0.0539439
C 1.48558 -1.35701 2.18955
C -2.86848 0.563528 0.691172
C 1.89883 1.06793e-06 2.28842
C -0.273969 2.69689 1.33393
C 2.70137 1.93461e-09 1.30871
C 0.00265253 2.22971e-13 -3.03373
C -0.194439 2.10079 -2.15847
C 0.554734 -2.89528 -0.61584
C 1.72024 2.2334 -0.947086
C -2.37189 -0.235933 1.85039
C 0.398765 2.76121 -1.08834
C -0.204621 -2.9417 0.596559
C -2.23061 1.77339 0.793217
C 0.108874 -1.45236 2.61397
C -2.03542 -1.60859 1.48303
C 1.05149 2.21644 1.7407
C -2.86081 0.323779 -0.785079
C 1.46162 -1.29206 -2.26123
C -1.79252 -1.33604 -1.99014
C 1.3416 0.0297904 -2.66108
C -2.11463 1.3636 -1.59251
