100

C 1.71366 -4.34706 -1.09811
C 1.16617 -3.36569 -3.19077
C -1.87728 2.87548 -3.37822
C -2.22195 -4.09309 -1.23619
C -4.66238 0.041532 -1.132
C 3.19623 2.09931 -2.94371
C 2.3732 -4.00985 1.17166
C -2.97019 3.40769 1.61565
C -0.967679 -4.71778 0.289047
C -4.4973 -1.65685 0.446647
C -2.84211 3.65547 -1.20155
C -2.06344 4.20924 1.05211
C 3.37854 2.96092 1.75812
C -0.909187 4.37552 1.72801
C -4.73119 0.702149 0.200554
C -1.17731 2.12841 4.05816
C -0.873698 -2.59608 -3.94809
C 0.214559 2.26473 4.20015
C 3.67428 -1.4223 -2.71352
C 2.49494 0.000984996 4.08067
C -2.13417 -2.18572 -3.69178
C 4.03281 3.05972e-05 2.51939
C -4.33757 2.10132 0.268013
C -2.84229 -3.61607 1.36348
C 1.42982 4.22021 1.74623
C 3.34493 -3.1741 1.37579
C -1.13231 -1.86444 4.27195
C 1.52347 2.71108 3.70114
C -0.153122 1.73323 -4.46821
C -3.83433 2.66134 -1.02738
C 2.00419 2.4206 -3.69018
C 0.21777 3.69243 -3.04012
C 3.52134 2.72674 -1.68276
C -1.1811 -4.12181 -2.22663
C 3.2781 0.913491 3.34829
C -4.59982 -0.354015 1.35308
C 4.59837 0.632367 -1.07634
C -3.2167 -3.20834 -1.54007
C 0.648738 4.7246 -0.249607
C 1.51244 -4.5358 0.275047
C 0.920762 3.64909 2.87237
C -3.86906 -2.11553 -1.91622
C -2.3782 -3.20608 2.66328
C 9.70259e-17 5.69288e-37 5.03198
C -1.08118 -3.72931 2.81886
C 4.31293 2.05119 -0.636936
C -1.93843 4.36803 -0.334248
C 4.06244 -2.04881 1.59808
C -0.68384 4.2538 -2.13798
C 0.0131565 -0.413524 -4.73384
C -2.31872 0.146047 4.221
C 1.60995 3.53068 -2.83785
C -2.21867 -4.24106 0.249956
C 0.204351 -1.79975 -4.46374
C 0.222494 -2.3041 4.2271
C 1.55082 -2.10086 4.09613
C -3.61969 1.41453 2.7997
C -2.49325 1.50026 3.80979
C 3.25937 -2.72273 -2.23962
C -0.281903 -3.60262 -3.13761
C -3.84228 -2.70778 1.0281
C -0.418939 3.84298 2.86991
C -3.27384 -1.6 -3.10765
C -0.048349 -4.283 2.18354
C 1.50004 -2.21017 -3.95916
C 4.22693 0.00552309 -2.3412
C 4.85685 0.00170971 0.219229
C 3.68641 -1.31498 2.77211
C 2.62628 -1.38462 -3.73953
C 3.47399 0.757491 -3.26235
C -4.04688 6.09293e-05 2.62126
C 2.20452 -3.65637 -2.19858
C -3.86252 2.38964 1.64151
C -1.02631 0.613801 -4.66745
C -0.604271 4.6957 -0.845336
C 4.4984 0.737939 1.34136
C 2.46174 3.73405 -1.68373
C 2.54176 3.92807 0.975105
C 0.310706 4.66379 1.1089
C 2.61143 0.000441361 -4.0718
C 2.0527 4.3777 -0.428184
C -1.13851 -0.508155 4.59179
C 2.87765 2.31926 3.11111
C -1.9885 3.72362 -2.30478
C -3.15671 -0.798154 3.57464
C -0.581226 2.83845 -3.83466
C 1.32527 0.0644024 -4.62585
C -2.825 1.92344 -3.36806
C -4.51761 -1.35889 -0.8849
C -3.38848 -0.169811 -3.39481
C 2.65841 -1.36081 3.77359
C 4.20006 2.07727 0.830449
C 1.23904 1.89785e-11 4.61955
C 4.57679 -1.32021 0.550956
C -3.78842 1.87294 -2.29085
C -4.14553 0.496903 -2.38506
C -2.40223 0.702672 -4.0982
C 0.259078 -4.72001 0.923635
C 1.20124 1.50372 -4.37992
C -2.42931 -2.08041 3.61329
