44

C -1.74841 -1.44595 -2.41534
C -2.14151 1.06675 2.29987
C 2.16973 -0.738766 2.38449
C -0.553876 2.96287 1.37594
C 1.36289 3.09498e-15 3.12745
C -2.23209 -0.395785 2.48843
C -0.468721 3.0324 -1.25069
C 2.55101 1.51087 1.47654
C 0.980875 -3.15505 0.328347
C 1.5534 2.01396 -2.16417
C 2.73269 2.01247 0.053695
C 1.36086 -1.92108 2.34063
C 2.75018 0.00216795 -1.92237
C 2.9804 0.000266795 1.52892
C 1.25877 1.99932 2.28254
C -3.21446 -0.192637 -1.00579
C -0.718531 2.15951 -2.43519
C -1.13678 2.09394 2.41908
C -0.31899 -3.25305 0.61193
C 3.32655 0.00111343 0.179819
C 1.75746 -2.57138 1.22933
C -0.066149 -2.00681 2.67266
C 0.475128 1.21554e-05 -3.29839
C -3.29092 0.164745 0.39954
C -0.992786 -0.938211 3.03478
C -0.0402845 1.44654 2.98343
C 0.971954 2.94886 -1.23195
C 1.30123e-25 2.81363e-49 3.28919
C 2.6781 1.40266 -1.39357
C -2.69754 -1.46824 -1.30025
C -0.739897 -2.73667 1.72864
C 0.880216 2.92354 1.2591
C -0.703192 -0.812892 -3.12642
C 1.58633 2.92085 0.0562863
C -2.85758 1.29859 1.09376
C -1.6994 1.20267 -2.59401
C 1.76305 0.000228437 -2.82889
C -1.13277 3.12738 0.0634365
C -2.58487 1.86998 -0.885194
C -2.77893 -1.83872 0.081022
C -2.90389 -0.971432 1.26381
C 0.362964 1.4507 -3.00118
C -2.28734 2.34479 0.307523
C -2.72517 0.869598 -1.72699
