66

C -1.54301 3.58241 -0.331668
C -1.43627 3.20584 -1.70425
C 3.74016 0.952201 -0.722549
C 2.4977 -2.54395 -1.60134
C -2.15563 -3.26459 -0.155757
C 1.65621 5.972e-06 -3.59095
C 0.145314 -3.81738 -0.829981
C 0.904503 3.6658 -0.989698
C -0.479086 -3.41601 1.80072
C -0.154102 -1.34473 -3.66885
C -1.59013 -2.65824 -2.40581
C -0.394697 2.3203 3.16562
C 0.909678 -3.1363 2.21222
C 0.748314 -2.15533 3.17719
C 2.93115 1.12981 2.3258
C 2.03594 -3.01116 1.46307
C -0.853871 1.08286 3.58893
C -0.981243 1.8648 -3.28974
C 1.3535 1.69531e-13 3.80458
C 0.436775 -2.47196 -2.99552
C 2.71016 0.213067 -2.83678
C -3.61235 0.390328 1.51973
C 3.48476 0.0139042 -1.73607
C -3.82958 -0.616964 -0.581733
C 3.48132 3.69114e-08 1.76701
C 1.15475e-22 7.78272e-38 3.90157
C 2.56828 2.35907 1.73257
C 1.71563 -2.26438 -2.70393
C -0.836237 -3.80282 0.314018
C 2.11673 2.96162 -1.46451
C -1.44619 -1.55901 -3.28031
C -2.06434 -0.284352 -3.33914
C 3.05091 -2.31418 0.896666
C 0.115542 3.63018 1.42411
C 1.32124 3.09361 1.97831
C 3.11231 2.1813 -0.810377
C -3.11981 1.36412 -1.92422
C -0.0693868 3.36094 -1.99654
C -2.69705 -2.66576 0.913403
C 3.86911 9.31726e-08 0.42719
C -2.91022 1.46784 2.1961
C -1.29327 -2.45158 2.79116
C -1.08115 3.08976 2.14698
C -3.44619 1.73216 -0.518018
C -3.12593 -0.00639532 -2.39289
C 1.59406 2.42392 -2.66876
C -2.11596 0.945951 3.16606
C -2.56745 -2.04727 2.09647
C 1.85992 1.08147 3.21904
C -2.65171 2.83575 0.248825
C 0.30192 0.000127055 -3.90859
C -3.87464 0.522576 0.160941
C 3.65949 -1.37044 0.114819
C -2.40327 2.69612 1.64235
C -2.10348 2.26365 -2.43498
C 1.57105 -3.46348 -0.927101
C -3.28469 -1.28505 -1.64909
C 1.01303 2.2454 3.05192
C -0.139573 3.90698 0.024798
C -1.0019 0.558654 -3.77889
C 0.245919 2.48638 -2.98334
C 3.40719 -1.46247 -1.25119
C -2.54885 -2.57675 -1.39303
C -0.389613 -1.49616 3.61248
C -0.304021 -3.2934 -2.09662
C -3.20786 -0.838396 2.04651
