89

C -0.842637 3.94076 2.09199
C 1.49696 -4.26943 0.237817
C -3.71281 2.54125 0.165875
C -0.394219 0.548001 -4.46799
C 2.87519 3.32821 0.768465
C -0.847388 -3.71381 -2.41514
C 2.23479 0.000174236 -3.96215
C 3.7143 2.19108 1.20178
C -4.51509 0.228253 0.419386
C 0.459796 -3.07911 3.26676
C -3.10025 -1.7315 2.79822
C -3.552 0.557109 -2.76717
C 1.30442 2.10791 3.80514
C 3.25309 1.79452 2.58731
C -0.574709 -1.17264 4.32772
C -2.09917 4.05836 -0.071328
C 1.51173 -1.21465 4.09252
C -2.33786 -1.41908 -3.60038
C 1.94025 1.4048 -3.80471
C -3.71144 -2.63126 -0.250325
C -0.547475 -4.38103 1.06587
C -2.33012 2.20746 3.14339
C 1.83423 3.68212 1.82154
C -2.28214 -3.3779 1.96514
C 1.72868 -2.34035 3.47818
C -2.91347 -2.32528 -2.56633
C 1.43369 4.24292 -0.887745
C 2.99769 -2.97936 1.65385
C -2.22024 -3.45715 -1.87684
C 0.0973963 2.55491 -3.75552
C 1.03112 0.851025 4.28045
C 0.516025 4.26597 1.51227
C 2.93947 -2.00907 2.75782
C 3.22489 -3.05218 -0.819777
C 3.70683 -2.55118 0.447762
C -0.867383 3.94113 -1.98138
C 3.31193 -2.36272 -2.00993
C 0.50432 -3.97774 2.10215
C -3.85915 -1.38961 1.80335
C -2.6979 -3.61061 -0.384902
C 4.06442 -1.26163 -1.5349
C -1.87147 3.17218 -2.68166
C -2.65867 0.0608941 -3.67087
C 3.27529 2.59734 -1.77124
C -3.79206 1.55991 -1.90611
C 1.29255 -1.02046 -4.19756
C -0.110865 -0.784499 -4.43429
C 2.3443 2.48704 -2.94127
C -0.753325 -2.4459 3.72572
C 2.33121 -2.54187 -2.92603
C -3.72011 -2.10269 -1.48954
C -1.65239 1.0266 -4.08513
C -2.99228 2.76323 -2.01732
C 1.16992 -2.36549 -3.66655
C 4.27674 5.56827e-05 1.77314
C 4.03703 0.000322216 -2.06877
C -1.92863 -3.99501 0.831459
C -3.00928 3.32199 -0.711847
C -4.27454 1.41762 -0.558821
C -1.29456 2.33971 -3.63877
C 0.607697 3.96708 -2.03081
C 2.72264 3.55947 -0.731008
C 2.05276 7.17293e-09 4.05911
C -3.15158 2.88163 1.4436
C 3.08742 0.538761 3.31813
C 3.57012 -0.685137 2.69684
C -1.25847 3.03928 3.05922
C 0.62202 1.41616 -4.26715
C 4.0476 1.37756 -1.39287
C -3.45193 1.88318 2.31625
C 4.50726 0.00112709 0.473401
C 4.31144 1.38704 0.0890002
C 4.31973 -1.29646 -0.119622
C -2.0269 -2.61919 3.0517
C -0.262465 -2.87782 -3.45293
C -4.26681 -1.39462 0.472001
C 0.375379 4.53538 0.0860253
C -4.15165 0.878726 1.62692
C 1.85135 -3.82793 1.49932
C 0.163453 -4.53011 -0.15809
C 2.11172 2.73053 2.8489
C 2.18756 -3.86948 -0.791638
C -0.0473762 -4.29652 -1.45301
C 1.07882 3.17361 -3.03438
C 1.4599e-26 1.99077e-45 4.66915
C -0.834411 4.38456 -0.624141
C -1.06705 -1.78234 -4.0095
C -2.09107 3.81811 1.32077
C 3.25977 0.0152411 -3.15957
