69

C 1.29854 0.000511197 -3.88512
C -0.762155 -3.1809 2.47268
C -1.60221 3.69997 -0.321487
C 1.21907 -3.78334 0.761134
C 1.49531 2.29313 3.0115
C -2.58993 2.66948 1.64855
C -3.7299 -0.859694 1.39056
C 3.72968 1.49019e-05 -1.58319
C 2.01098 3.46872 0.467285
C 0.789112 3.75038 -1.45904
C -3.82206 -1.39849 0.032816
C -3.6633 0.573375 1.67152
C -3.11492 -2.57006 -0.0233802
C 1.88131 -3.5669 -0.396152
C 2.73263 2.36382 -1.89388
C -0.096045 1.43717 -3.77944
C -2.28833 1.92094 2.8078
C 1.70861 -3.26198 -1.72751
C -2.95199 1.04122 -2.58267
C 3.48386 1.85629 -0.859518
C 2.67405 1.61797 2.52035
C -2.90728 -1.694 2.31762
C 2.44629 2.23949e-07 -3.24086
C 3.5848 1.90614 0.439103
C -2.12985 -2.86641 2.0065
C 3.13416 -0.935395 -2.4167
C -0.0430867 -2.2597 3.3589
C -0.0274594 -3.84485 1.34065
C -0.941949 -3.96638 0.240321
C -2.31639 2.29271 -2.46535
C -0.998519 2.18484 3.32208
C -0.877314 -1.09834 3.79936
C 1.03417 2.08949 -3.35483
C -3.53589 1.85381 0.913854
C 0.335928 -3.48263 -2.0454
C -0.217634 4.04354 -0.455851
C -3.10476 -1.08689 -2.39009
C -3.50907 2.01885 -0.503197
C -3.75376 0.819536 -1.35895
C 3.87324 5.55498e-06 1.23413
C 0.545158 3.11232 -2.61286
C -2.56768 2.96996 -1.1352
C -2.24985 -2.17332 -2.59609
C 0.676596 3.95856 0.692795
C 2.31811 1.50507 -2.99318
C 6.86366e-17 8.78428e-29 4.08504
C -1.21358 -0.731098 -3.82045
C 3.20341 7.36945e-07 2.52956
C 0.0015647 2.45158e-13 -4.02234
C -1.09787 -2.03941 -3.35517
C 4.09114 0.00619944 -0.185897
C -2.23695 -0.751681 3.31978
C 2.26001 -0.836631 3.30591
C 0.0178818 -2.65182 -3.08317
C 1.36012 -1.94228 3.29025
C 2.07697 3.34699 -1.01024
C -0.472172 -3.93697 -1.00889
C -2.42192 -0.144203 -3.25284
C 1.29928 3.17525e-09 3.83692
C -2.17959 -3.34815 0.664261
C -3.84073 -0.599831 -1.17195
C -2.81132 0.536431 2.86177
C 2.84504 2.57364 1.35206
C 2.51855 -2.21546 -2.32881
C -1.60759 3.55936 1.14937
C -0.266659 3.64998 1.77425
C 0.199577 2.90516 2.88584
C -1.19369 2.11072 -3.29562
C -0.794379 1.02308 3.91747
