79

C -1.40569 0.503798 4.13992
C -2.26774 3.29658 1.73867
C 0.127822 2.64999e-13 -4.33495
C 3.20081 2.38478 1.65524
C 2.88411 3.17015 0.504508
C -3.53657 1.93166 -1.68006
C 2.3919 0.924985 -3.5307
C 1.26204 -3.08679 2.77778
C -3.05296 -2.44757 1.91115
C -1.48671 1.99972 -3.54354
C 0.0851997 3.32884 2.69897
C 0.846732 2.23343 -3.61258
C -0.50761 4.2942 0.461631
C 2.7017 -3.03484 -1.57769
C 2.38228 -1.36794 3.39019
C 0.0655099 -1.4821 -4.07813
C 0.706785 1.28604 4.02904
C -4.06379 1.4031 0.634509
C 1.48323 0.00579351 -4.10201
C 0.448775 -4.06978 -1.44846
C -3.58346 2.41264 -0.314371
C -2.72604 3.36731 0.352057
C -2.60118 -3.34734 0.895819
C 1.75211 -3.8813 -0.842286
C -3.42943 -0.0575427 2.67755
C -0.145111 -1.38719 4.06312
C -3.59837 1.29063 2.01229
C 2.22253 3.15211 -1.9459
C -1.6381 1.81978 3.58494
C -2.6686 2.25214 2.60246
C 2.75042 3.35489e-11 3.29828
C -0.920263 3.84658 1.77825
C 2.20874 -2.46374 -2.81086
C 0.888541 -2.49962 -3.43299
C 2.28015 -3.24354 1.82504
C 3.87553 -1.2041 1.53189
C -0.725593 -4.24384 -0.66684
C 0.830164 4.24823 -0.0671109
C 4.13228 -1.29476 0.151921
C 3.72584 4.07761e-06 2.25464
C -0.244496 2.32844 3.64807
C 3.58216 -2.32956 -0.696484
C 0.0358726 3.64309 -2.30963
C -3.35071 -0.359635 -2.75895
C -2.36213 -0.411714 3.59185
C 4.31712 0.000133165 -0.491892
C 3.95524 0.343063 -1.76632
C -2.11186 -2.47875 2.90006
C 3.8722 1.19637 1.57609
C -1.32511 -1.57335 -3.8188
C 1.77539 3.86409 0.904843
C -1.64938 4.00986 -0.24251
C -2.17371 -0.382417 -3.70459
C -3.75468 -1.18091 1.80463
C 1.07227 3.91209 -1.45824
C 0.0115141 -3.40456 -2.67399
C 2.31892 2.42666 2.70621
C -1.5436 -1.59267 3.73215
C 3.05271 3.01496 -0.840062
C -1.88156 -3.8992 -0.0503892
C -2.47557 -2.67863 -2.37423
C -3.30305 -1.64028 -2.26656
C 2.07586 1.27423 3.59356
C -1.22335 0.633054 -4.10853
C 2.86986 -1.29903 -2.97305
C -3.95018 0.578159 -1.70828
C 2.12541 2.2641 -3.06113
C 4.1971 1.08265 0.272495
C -2.5936 2.21484 -2.67269
C -4.24375 -0.726287 0.580193
C 1.42595 3.44229 2.25958
C -1.28515 -2.8151 -3.00689
C 1.09148 -2.03234 3.62257
C 3.25037 0.00296231 -2.85587
C -4.33507 0.30766 -0.306939
C 2.99799 -2.09336 2.33069
C 1.25447e-19 3.71416e-29 4.28629
C -0.339522 2.81231 -3.31643
C 2.08105 -3.74603 0.534025
