28

C 1.26474 -1.99999 -0.768332
C 0.259843 -0.391573 -2.42022
C 2.21103 1.019e-07 -1.11395
C 1.31377 4.6264e-18 2.04933
C 1.41244 -0.949569 -1.76608
C 1.83357 1.02813 1.20128
C -1.21197 1.32212 -1.72486
C -0.395027 1.34256 2.05279
C 0.165433 2.4856 -0.127424
C 2.47003 1.65305e-07 0.247815
C 2.03088 -1.37136 0.336522
C -1.21527 2.09187 -0.517254
C 0.0302193 -2.45648 -0.117263
C -1.80386 0.0538481 -1.70187
C -2.42943 0.0358695 -0.441496
C -0.996245 -1.10626 -1.95699
C -0.7331 -1.17501 2.06442
C -2.15969 -1.24103 0.105283
C -1.92694 -0.6384 1.45221
C 0.140736 -2.09332 1.32319
C 4.90471e-29 1.16022e-45 2.50439
C -1.74063 0.823346 1.5884
C 0.670505 1.96676 -1.35537
C -2.09876 1.27015 0.258875
C 0.689675 2.08003 1.20167
C 1.37225 -1.3376 1.57692
C -1.20623 -1.99559 -0.760563
C 0.0627701 1.04122 -2.24647
