60

C 1.29422 3.26125 0.880491
C -3.36233 -0.776608 -1.02694
C 3.52327 5.76226e-05 -0.764242
C 2.97882 2.1045e-06 -2.0679
C -0.129594 2.4142 2.68368
C -3.5931 0.248979 -0.0764041
C -0.648373 0.379367 -3.49215
C -1.79197 2.15671 -2.24292
C -2.83155 -0.120969 -2.21785
C 3.37555 -1.2757 -0.318423
C 2.60632 1.36454 -2.05462
C -0.979228 3.03731 1.67267
C -2.90854 -2.06331 -0.409958
C -0.95494 -1.041 3.32737
C -0.623099 -2.32357 2.70399
C 1.88441 3.06427 -0.452064
C -3.23421 1.47084 -0.636842
C -2.14514 -0.549658 2.8474
C 0.0783603 -3.46705 0.996883
C -3.33344 0.162801 1.30407
C 2.6483 -2.06922 -1.21213
C -1.39744 -1.90871 -2.7031
C -0.0772926 3.54375 0.648847
C -1.75231 -0.532122 -3.10998
C -2.77042 1.3591 1.92461
C 0.797972 3.12245 -1.50792
C 2.04094 -2.94656 -0.308281
C 0.0743526 -2.34006 -2.73269
C 3.29319 1.27177e-09 1.47852
C 0.768798 1.14521e-05 -3.48972
C 1.98874 1.42651 2.63403
C -1.17434 -3.23855 -1.08816
C -2.14255 -2.45331 -1.52703
C 1.53035 1.25557 -2.98941
C -2.80158 1.24276 -1.90401
C 2.33904 -2.58615 1.02723
C 2.9147 2.04402 -0.726177
C -2.9196 -1.13439 1.79812
C 0.810385 -2.08596 2.82129
C -2.48307 2.58197 -0.102621
C 1.21798 -2.90151 1.76093
C -0.706454 1.73017 -3.04893
C 0.773788 -3.50192 -0.315159
C -1.62422 3.00421 -1.13042
C -1.30487 -2.9692 1.55068
C 1.26768 2.56088 2.2531
C -1.93258 0.846121 2.9344
C 2.30446 8.49816e-13 2.63777
C 1.1483 -1.37677 -3.12496
C 1.27837 -0.773409 3.27999
C -2.52651 -2.32012 1.00822
C -2.25896 2.51686 1.29312
C 3.14719 -1.40469 1.02557
C 0.585359 2.32301 -2.6692
C 3.42993 1.01527 0.266875
C -0.641173 1.27656 3.33403
C 0.110613 -3.25933 -1.55245
C 2.36606 -1.29502 -2.3752
C -0.368523 3.51038 -0.749982
C 1.35728e-19 1.18704e-38 3.59915
