83

C -3.59513 1.29657 2.04786
C -0.566213 -3.38035 2.62684
C -1.71831 3.88915 -0.671409
C -1.57922 3.93607 0.727192
C -0.0807235 1.33627 -4.09152
C -4.1714 0.410956 1.06404
C 2.17936 1.31249 -3.5032
C -2.50788 -2.15478 -2.72732
C -1.13409 3.06717 -2.82392
C -3.96477 -0.912982 1.44736
C 1.64981 2.47933 3.14962
C 2.64592 -0.997889 -3.23941
C 3.92635 0.553455 1.59249
C 2.73313 -3.24363 0.792987
C -0.818643 -4.00818 1.28282
C 2.45015 1.79038e-06 3.51731
C 1.01864 -4.12757 -0.602634
C -2.65595 1.36785 -3.12742
C 0.533473 2.7986e-05 -4.29008
C 4.2693 0.0012964 -0.354661
C 3.38545 2.16534 -1.51326
C 0.816997 -3.34964 2.60366
C -4.19499 0.861148 -0.31052
C 4.04571 1.37053 -0.46138
C 2.38969 3.25329 -1.4872
C -0.0152912 3.66686 -2.25771
C 3.20533 1.31279 -2.61387
C 3.16724 -0.914765 2.81487
C 2.27741 -2.38222 -2.77323
C 3.86882 -0.935061 1.62788
C -1.32298 -2.86561 -2.94459
C -0.332082 4.17251 -0.999261
C -1.72382 1.80104 3.50979
C 0.998811 -3.00944 -2.91314
C -3.22613 -1.19316 2.60201
C 2.31256 -3.59161 -0.491181
C 1.86652 0.0194838 -3.89037
C 2.07252 3.75362 -0.08504
C -2.16873 -3.60766 -0.893576
C 1.33827 1.12123e-14 4.16313
C 3.83458 1.77607 0.879131
C -2.03283 -3.77023 0.518331
C 0.485936 -4.21425 0.734476
C 1.29907 3.2327 -2.53789
C 3.72985 -1.98679 -0.723392
C 3.46822 0.000234077 -2.49721
C 4.01981 -0.76667 -1.37959
C -2.95495 -2.92049 1.24876
C 3.68468 -2.10275 0.709942
C -3.04047 -2.6234 -1.54403
C -3.87432 -1.6556 -0.890783
C -0.129184 -2.41497 -3.60757
C 0.381912 -3.88658 -1.871
C 2.92015e-20 5.00955e-36 4.24297
C -2.80629 0.963434 3.13828
C -3.64937 2.24857 -0.282639
C -4.06259 -0.239578 -1.3606
C -1.35657 -2.36491 3.3144
C -1.52098 1.00827 -3.92557
C -0.364662 3.46652 2.51143
C -3.40238 0.159413 -2.62863
C -1.22852 -0.969011 4.00705
C -0.393708 1.40711 3.95291
C 0.652149 4.23565 0.11827
C 1.05651 2.18118 -3.57338
C -2.47553 -0.403519 3.50041
C -1.65381 2.92011 2.7242
C -0.348516 -1.12396 -4.1353
C -2.37817 3.21218 1.57028
C -0.28473 4.11604 1.24186
C 1.58887 -3.71536 1.51173
C -1.58931 -0.40301 -3.97965
C 2.93597 2.99329 0.90198
C 0.329148 2.60329 3.38686
C 2.88335 -2.81847 -1.52224
C -3.79937 -2.00175 0.498935
C 2.46001 2.7668 2.18681
C -2.7932 3.03194 -1.16631
C -2.3691 2.5944 -2.49659
C -2.53831 -2.41297 2.52797
C -3.38689 2.39336 1.15609
C -1.06549 -3.72668 -1.83068
C -2.6969 -0.873088 -3.25367
