80

C 0.394454 2.85524 -3.35711
C 0.871751 -2.21835 3.77502
C -2.69211 -2.34892 2.63378
C -3.40634 -0.0123082 2.86426
C -1.84992 1.52202 3.73508
C -0.137851 3.38876 2.89302
C 3.52729 2.65154 0.459075
C -1.78282 3.21442 -2.50814
C 2.77809 -3.42396 0.51706
C 1.57804 -4.07585 0.798942
C -2.37403 0.255297 3.73636
C -1.3534 -0.70841 4.15129
C -3.17511 3.03651 0.699168
C -1.15421 1.09752 -4.14211
C -4.01013 0.458232 -1.85253
C 1.82972 -2.79972 2.8955
C -0.385409 -2.73207 3.47763
C -2.71277 -3.06725 -1.68465
C -0.605923 -1.18756 -4.21118
C -1.6 -2.02676 3.59214
C 4.43038 8.56593e-06 -0.0903745
C 2.52253 3.56444 0.693254
C 4.14525 -1.55079 -0.120157
C 3.74704 1.87923 1.5358
C -3.64982 2.46593 -0.562239
C -0.968491 2.45942 -3.57109
C -3.69831 -2.02787 -1.40521
C 3.86573 0.00782111 -2.17919
C -0.278974 -3.67489 2.43213
C 0.339075 4.38099 0.517393
C 2.82887 2.80913 -1.92065
C -4.39747 0.29459 0.671184
C 1.75609 3.72204 -1.57752
C -3.6239 -1.28153 2.26161
C -2.48515 0.691251 -3.62626
C 3.60043 -2.35937 0.958638
C -1.83119 -1.46557 -3.78401
C 2.61379 1.98896 -3.01667
C 1.91544 3.57721 1.89089
C -3.92285 -2.07386 -0.0278065
C -3.73204 -0.855639 -2.22723
C -2.18502 -3.81413 -0.530778
C -0.498692 1.33696 4.22869
C 4.22985 0.8473 -1.12369
C -2.8406 -0.651908 -3.34312
C -4.27507 1.12576 -0.544775
C 4.28391 0.0032587 1.15571
C 0.000537213 9.39907e-13 -4.4165
C 1.61209 1.35529 3.97009
C -1.94998 3.88886 0.960996
C 0.601924 4.01054 1.8662
C 1.15851 0.630982 -4.22169
C -2.48238 -3.302 1.66295
C 1.42737 1.95783 -3.75656
C 3.13806 0.662099 -3.09975
C -0.84775 4.03591 -1.64425
C 0.467498 3.78934 -2.2457
C 3.06399 -2.138 2.40335
C 3.61485 6.02162e-05 2.61458
C 5.75976e-17 1.58435e-33 4.44922
C 0.493566 2.29258 3.76038
C -3.93601 0.892412 1.84908
C 1.03616 -0.905309 4.24487
C 2.21869 0.0128182 -3.80597
C 1.57963 4.10916 -0.220999
C 2.06595 2.37844e-08 3.96628
C 1.14933 -3.74738 2.13064
C -2.3395 2.46854 2.81749
C -4.19829 -1.10538 0.910613
C -1.47373 3.49121 2.27171
C -3.28037 1.36731 -2.65892
C 0.357036 -4.41507 0.160281
C -3.02249 2.58966 -1.96365
C -3.0848 -3.1661 0.380943
C -3.40176 2.22241 1.88679
C -1.00043 -4.29319 0.226678
C 2.92328 -0.956955 3.20345
C 3.70802 2.21081 -0.939581
C -1.2408 -3.96048 1.54777
C -0.965411 4.3548 -0.183409
