22

C 1.63557 5.75663e-06 -1.95491
C -2.17011 0.998414 0.960415
C -1.47746 -2.0734 -0.0745939
C 1.30811 1.84473e-11 2.21556
C 2.57469 6.50772e-05 0.0391109
C 1.22169 2.09491 0.750958
C -1.33936 -1.6966 -1.39522
C -2.23786 -0.347741 1.1491
C 2.2731 3.49393e-07 1.359
C 6.16925e-16 1.50348e-30 2.55454
C 2.1236 1.43373 -0.086541
C 0.778355 -2.12761 1.23296
C -0.263969 -1.50126 2.06995
C 0.315637 7.73919e-06 -2.55454
C 2.16155 -1.02877 -0.847683
C -0.0660087 2.19331 1.31601
C -0.319234 1.24947 2.25217
C -0.683605 -0.894424 -2.31264
C -1.35304 2.05545 0.736557
C 1.70955 1.26674 -1.39992
C -1.54489 -1.55904 1.30142
C 1.61095 -1.99425 0.144323
