41

C 0.152896 1.34554 2.66347
C 0.235603 2.3085e-09 -3.00448
C 1.02287 2.15012 -1.87537
C 1.34729 0.854573 -2.56175
C -0.65597 2.86157 0.74056
C -2.68835 1.28961 0.600573
C -0.877944 -2.00517 2.06628
C -1.85038 0.553657 2.35445
C -1.48315 -1.1557 -2.35434
C 1.9071 5.20562e-07 2.35974
C 1.09581 -2.78365 0.35301
C -0.747084 1.08509 -2.70222
C -0.415953 2.26226 -1.89841
C 0.625505 -2.22357 -1.89754
C 2.21321 3.34573e-05 -1.94726
C -2.04173 -1.81559 -1.27642
C 1.74388 2.42194 -0.548583
C -1.33094 -2.67875 -0.364504
C -1.82801 0.186043 -2.3905
C 1.39177 -1.31194 2.33851
C -2.68905 0.468608 -1.30758
C 4.4208e-19 4.94483e-41 3.00727
C -1.81997 -2.21438 0.963169
C -1.14942 -0.704692 2.69073
C 2.61986 1.29435 -0.446727
C -1.21544 2.66162 -0.670622
C 2.8818 -0.88971 0.233253
C -2.68465 0.155967 1.30164
C 1.9216 -1.54623 -1.76756
C 2.74326 1.34531e-06 1.31421
C 0.0985656 -2.91295 -0.736788
C -2.72652 -1.12826 0.731787
C -2.83275 -0.827417 -0.621069
C 0.612044 -2.35193 1.77477
C 1.0017 2.1983 1.86225
C -1.12933 1.90183 2.06905
C 2.19403 -2.04405 -0.353423
C 0.864607 2.83391 0.609523
C -2.40106 1.73068 -0.651107
C 2.9575 0.000261649 -0.759901
C -0.108866 -1.37047 -2.70006
