71

C -0.959699 0.940577 -3.7661
C 1.3288 5.69767e-12 3.91217
C 1.96106 -3.08662 1.52769
C 0.631347 2.43853 -3.03565
C -1.82689 2.59304 -2.38793
C -3.87318 0.154201 -0.855125
C 2.1768 3.3102 -0.0893206
C -0.741665 2.17738 -3.20535
C 5.01945e-13 2.1026e-31 3.9645
C -3.47012 1.50072 -1.09988
C 2.36194 -2.84425 -1.41789
C -2.87058 -0.0813597 2.67957
C -0.459637 3.73133 -1.24085
C -0.313959 -3.73758 1.31117
C -2.78422 1.553 -2.36004
C -3.57941 0.655734 1.55935
C -1.58517 -3.56631 0.64142
C 3.08357 0.861603 2.32704
C -3.51544 -1.82007 0.384352
C 3.74075 9.9274e-08 1.44824
C -0.980448 3.34718 1.87393
C 1.52675 -2.40696 2.72732
C 3.26465 2.24532e-05 -2.27516
C -2.63823 -2.71926 1.13147
C 0.72496 -2.13524 -3.24049
C -2.25156 -2.96428 -1.38099
C -3.09617 2.11462 1.26036
C -3.23722 -2.04965 -0.981812
C 2.41245 1.90654e-09 3.19597
C -2.97503 2.58777 -0.235581
C 3.67319 1.57583 0.100749
C -1.59292 -2.65408 -2.46443
C -0.0199146 1.54594 3.63144
C 0.155456 -2.34632 3.20122
C 3.94241 0.248445 0.0505141
C 1.42416 4.04764e-06 -3.69467
C 2.3402 -0.856823 -3.06696
C -2.10168 -1.18704 3.1194
C 0.789319 3.38792 -1.99468
C 1.10708 2.40467 2.90691
C 1.33583 -3.66053 -0.698174
C -1.26519 -3.69431 -0.702059
C 1.95809 -2.17949 -2.66349
C -0.800057 -3.03453 2.44007
C 0.0517599 8.17405e-14 -4.0535
C -2.22717 0.640322 -3.18385
C 0.0270814 -3.80922 -1.11315
C -1.59146 -1.55972 -3.25901
C 2.42241 2.1323 2.17099
C -2.07382 -2.40597 2.37413
C 3.30297 -2.10684 -0.621355
C -0.129639 3.99704 0.0438056
C 2.13222 2.92543 -1.55658
C 1.647 1.44181 -3.27365
C 3.32771 -1.3529 1.71766
C 1.02987 3.74764 0.72061
C 3.06379 -2.39798 0.762891
C -3.93639 -0.365791 0.498925
C -1.94345 3.31041 -1.14653
C -3.44372 -0.868104 -1.76058
C 3.75616 -0.680448 -1.0096
C 0.41596 3.3991 2.00573
C -0.277185 -1.33934 -3.73254
C 2.44879 -1.365 2.7972
C 0.998779 -3.75438 0.737196
C -1.33778 1.90213 3.24423
C -0.758693 -1.19361 3.69668
C -2.07007 2.56777 2.18301
C 2.94151 2.52338 0.816947
C 2.76263 1.59784 -2.36126
C -2.59638 -0.673615 -2.9387
