96

C 1.28269 -3.11418 3.19483
C -3.41574 -3.09952 -0.119336
C -3.58519 0.176351 2.89232
C 1.88532 4.1795 0.441733
C 2.5229 3.82922 -0.71616
C 0.63827 -4.43448 1.16185
C -0.847194 3.22572 3.18755
C -0.0837281 4.50868 -0.925998
C -0.244543 4.39752 1.44465
C -3.13333 2.4638 2.2739
C 1.78135 1.20311 4.05712
C -1.24958 -4.42059 -0.343183
C -2.29372 4.024 0.0110217
C 0.200028 6.99825e-08 -4.59565
C -0.00386475 -3.95512 -2.40248
C 0.33678 3.77016 2.60344
C 2.86738 -3.37305 1.2915
C 3.61864 2.69278 1.14581
C -1.88567 1.24634 4.06588
C 1.68879 -3.81167 1.98885
C 3.3998 1.90166 -2.43129
C -4.46871 1.01902 0.72603
C 1.9568 -1.21186 4.01756
C 2.56535 -3.81509 -0.0586701
C -3.00915 1.40571 3.25216
C 2.07904 2.35419 3.42594
C 2.82605 0.000469013 -3.63517
C -1.56671 3.65666 -2.35606
C -3.3562 -2.0834 2.39841
C -1.64772 -3.8613 1.91296
C 0.106201 2.49042 -3.86508
C 0.598677 4.09385 -2.0256
C -1.17819 -3.37905 -2.92918
C 0.0912367 -1.56769 -4.3494
C 3.27784 -2.29282 -2.29014
C -0.787015 -4.42798 0.976462
C -0.313702 3.51281 -2.95629
C 4.03814 -0.901806 2.01927
C -2.39075 -3.28449 -2.22355
C 2.45392 -2.24195 3.20675
C 0.0810091 -4.48377 -1.09745
C 3.15551 -3.1376 -1.18691
C -2.06118 3.36219 2.43612
C 3.52954 2.97874 -0.25477
C 1.58181 6.9126e-05 -4.2888
C 3.5665 1.23172e-07 2.99672
C 0.159896 -2.5022 3.85384
C 2.5868 9.52827e-10 3.92203
C -2.17148 -1.70254 -3.70209
C 0.395363 1.29192 4.41441
C -2.46403 -3.80721 -0.907055
C 1.68983 3.40893 2.70393
C -1.66449 4.10212 1.27737
C 2.49691 3.60497 1.57201
C 0.552716 4.57729 0.326034
C -1.25766 -2.41009 3.73525
C -2.7865 0.587527 -3.63777
C 3.4147 -2.27554 2.14321
C -2.20801 -2.9492 2.76591
C 4.64842 0.00207154 -0.356578
C -4.2981 -0.0741399 1.67895
C 0.631044 -1.19436 4.41082
C -3.40161 3.12993 -0.220055
C -2.52598 2.75468 -2.7214
C -1.37621 0.00343423 4.38084
C 4.4741 0.000144633 1.05011
C -4.14801 -2.02231 0.0648089
C 3.68362 0.593522 -2.76366
C -0.954444 -2.35951 -3.85943
C 2.78255 -1.62844 -3.32082
C 1.95097 3.66321 -1.96856
C -0.718241 2.08127 4.08184
C -2.11188 -0.448832 -4.06348
C -3.0799 -2.10315 -2.72902
C -3.88996 -1.10842 -2.23478
C 4.24049 1.44216 1.43673
C -3.47608 2.54516 -1.59761
C 1.02418 -3.30122 -3.07269
C 4.31529 0.00525285 -1.69874
C -3.85536 2.35509 0.976137
C -2.03083 1.77725 -3.7289
C 3.88167 2.12595 -1.2229
C 1.44072 2.32366 -3.72306
C -4.08111 1.26267 -1.70587
C -4.54309 0.499141 -0.585466
C -1.48188 4.23701 -1.12469
C 1.41071 -2.17398 -3.81986
C -4.15011 -1.49153 1.35455
C -0.68815 1.34039 -4.36769
C 3.35627e-19 7.59158e-39 4.60422
C 2.38221 2.71504 -2.87181
C -4.4288 -0.991427 -0.907814
C -1.97269 -1.17122 4.02127
C -3.76215 0.24378 -2.66157
C -3.08637 -1.02472 3.25672
C 1.24881 -4.4305 -0.191782
