60

C -1.403 2.76785 1.81842
C -2.03685 -1.78785 2.40067
C -3.31829 -1.43151 0.135468
C -2.52753 -1.56061 -2.06363
C -1.45256 1.72162 2.82583
C 1.29065 2.04912 -2.69989
C -2.36799 2.1488 -1.67473
C 1.18159 0.775227 -3.34721
C 3.03331 0.716927 -1.85177
C -1.14199 3.39472 -0.243749
C 3.54683 0.000626521 -0.705202
C -0.852238 -3.02333 -1.84029
C 1.44888 5.87412e-13 3.27383
C -3.06914 -1.21195 1.58159
C 0.564025 -3.00176 -1.93615
C -2.92703 2.05417 -0.274862
C 0.310141 2.9697 -2.03366
C 3.17461 -1.37057 1.07068
C -1.1382 3.02287 -1.65914
C -3.58837 -0.220075 -0.601057
C 0.936789 -2.05272 -2.8337
C -3.04944 -0.205852 -1.92477
C -2.13886 2.87137 0.617132
C -1.4044 -0.650438 3.25346
C 3.44662 0.817335 0.483634
C 2.27544 -2.12112 1.84117
C -1.30761 -1.96285 -2.73752
C 2.44309 1.97846 -1.80224
C -3.18151 0.231011 1.68661
C -2.68191 -2.26527 -0.809351
C -0.0588102 1.50057 3.24214
C 1.49376 -3.20833 -0.879941
C 2.51991 -2.2087 -1.29819
C 0.102091 -2.83232 2.29758
C 1.05056 3.37672 -0.769101
C 0.860794 2.41614 2.52013
C -3.47516 0.846036 0.36307
C 2.17375 2.06585 1.99177
C 0.0105532 6.42026e-09 -3.59956
C 2.30616 0.00123109 -2.82613
C 5.70438e-12 6.96887e-27 3.53677
C 2.18059 -1.42619 -2.52093
C 0.149245 3.57249 0.314338
C 2.79268 2.10133 0.635452
C -0.778288 -3.51647 0.455829
C -1.18654 -2.91092 1.7938
C 3.21212 1.31314e-10 1.60604
C -1.6166 -3.18949 -0.654874
C -0.154446 -1.36272 -3.36341
C 0.736169 -3.55322 0.245138
C -2.39094 0.960347 -2.54388
C 3.3259 -1.38525 -0.378973
C -0.0408667 3.22463 1.70199
C 0.522626 -1.88585 3.05305
C 1.25634 -3.04584 1.48104
C -2.23255 0.527935 2.79573
C -1.24688 0.608055 -3.32393
C 2.31543 2.68659 -0.589008
C 2.44452 0.748818 2.55732
C 1.74445 -1.31792 2.88383
