27

C 7.49451e-05 2.00788 -1.34335
C 1.96681 -1.35774 -0.512701
C 0.801284 -2.0231 -1.14348
C 0.915245 2.22244 -0.301821
C -2.44712 0.218822 -0.121525
C 2.31437 5.62753e-09 0.92843
C 1.75815 1.03665 1.39283
C -1.56388 -1.41995 1.23848
C -0.801951 1.11937 -2.05641
C 0.160951 2.26489 0.944498
C 1.98075 1.28646 -0.592015
C 3.84874e-24 1.93444e-38 2.35966
C -2.12997 -1.19297 -0.100057
C -1.98291 0.84642 1.09899
C 1.28443 5.00757e-06 -2.09007
C 1.87183 -1.27651 0.914995
C 0.719204 -1.32552 1.93221
C 0.067061 -2.45611 -0.0162205
C 0.000701717 4.29455e-17 -2.49176
C -1.43292 -0.169293 2.0118
C -1.17016 1.9453 0.965743
C -0.26668 -2.08267 1.25169
C -0.243679 -1.39506 -2.01288
C 2.18563 3.1308e-08 -1.07634
C -1.4183 -1.57683 -1.23583
C -1.94832 0.794596 -1.30936
C 0.552934 1.25194 1.94304
