39

C 1.95898 2.05129 0.645456
C 1.75768 1.35057 1.89776
C -2.22306 0.81751 1.66074
C -1.4375 -0.248908 2.50302
C -0.231699 2.30687 1.78065
C -2.15707 -0.230814 -1.95763
C -1.92522 -2.18417 -0.239435
C 1.71765 5.74512e-06 -2.32973
C 0.469365 1.35696 2.54815
C -2.84933 0.0703915 0.492798
C 0.453031 2.28187 -1.74038
C -0.053664 2.88022 -0.495335
C 1.49955e-20 1.08319e-39 2.79162
C 0.691594 2.71082 0.722516
C 1.11581 -0.913928 2.55169
C 0.193723 -1.34581 -2.5773
C -1.05751 0.507429 -2.65783
C -1.85148 -1.59474 -1.54645
C 0.866903 -2.13087 1.81925
C -1.5873 2.07582 1.35898
C 2.32478 -1.02196 -1.37505
C -0.510407 -2.3881 1.54685
C -2.68231 0.611357 -0.880574
C 2.80321 0.00387024 0.82029
C -0.572765 -2.15212 -1.86796
C 1.68335 1.48544 -1.86817
C 1.66878 -2.27672 0.652707
C 2.45287 1.4167 -0.579052
C 2.86447 0.000198875 -0.513465
C 1.71189 -2.22391 -0.788134
C 2.12383 4.8674e-06 2.00041
C 0.300113 6.49193e-06 -2.85867
C -1.98585 1.86422 -1.0841
C -1.38435 2.55401 -0.0120351
C -0.936014 1.79007 -2.09749
C -0.702659 -2.84531 0.204252
C 0.320228 -2.75355 -0.863854
C -2.50109 -1.31897 0.738563
C -1.60662 -1.53436 1.88592
