92

C 0.467572 -3.86196 -2.46239
C -4.21366 -1.71962 0.66866
C -2.72137 -3.70291 0.00546782
C 1.94211 1.11509e-09 4.20603
C -1.51777 3.21318 2.88375
C -3.52951 -0.598135 2.89098
C 1.301 3.51579 -2.71517
C -1.17664 -4.14937 1.61405
C -0.705525 0.253945 -4.55465
C -2.85058 -2.72731 2.37584
C 3.54834 -2.27068 -1.8618
C 2.05886 -4.09541 -0.200985
C 3.64588 2.37804 -1.44606
C 3.04311 3.23129e-08 3.44534
C -0.0223391 1.46854 -4.35192
C 0.0117497 3.32808 -3.13354
C -1.70455 -2.07057 -3.73694
C -2.77216 -0.952453 -3.54733
C -1.97459 0.934352 4.03582
C -1.97166 1.66356 -3.80629
C 1.93824 3.85246 1.55587
C 2.45203 -3.31433 2.04269
C 1.25295 -3.96367 1.94919
C -3.73237 -2.65493 -0.260321
C 1.00513 4.40995 0.784852
C -4.45711 0.603642 0.967966
C 3.63089 0.531529 -2.77826
C -3.49066 2.72789 1.34324
C -3.73838 -2.16925 -1.57848
C -0.835715 -3.54194 2.82277
C 0.913202 -4.45093 0.687903
C 2.75829 0.00032489 -3.69436
C -4.29691 1.2865 -0.959627
C -2.45075 -0.411058 3.86071
C 1.35556 3.3715 2.78694
C 4.06015 -1.3934 1.60831
C -2.34194 2.12529 3.34801
C 3.77941 0.656427 2.50124
C 0.568827 -2.88284 -3.5288
C 4.02294 -2.17963 0.344163
C -4.4235 -0.101164 -1.32668
C -1.66557 4.18872 0.554987
C 5.8912e-17 5.82672e-38 4.6933
C -3.96937 0.592137 2.26423
C 0.314318 -0.704593 -4.50277
C -3.43235 1.86393 2.49824
C 3.31275 -1.36 2.8578
C -4.18191 1.88236 0.356951
C -3.8199 -0.934334 -2.36436
C -2.06787 0.256781 -4.08146
C -0.513638 -4.53015 0.47716
C 2.92212 3.44779 -0.731672
C 4.24177 -1.42077 -1.04221
C 1.86342 -2.50765 -3.35493
C 1.68498 -3.93897 -1.60391
C -0.0558745 -1.37318 4.35983
C 3.00728 3.40436 0.709778
C 2.54472 -3.01003 -2.34575
C -1.74032 -3.21317 -2.81128
C 2.34176 -2.39913 3.14639
C -1.48291 -4.32743 -0.600175
C -1.50972 -1.5138 4.10681
C 0.659858 4.52512 -0.486645
C 4.32074 2.8903e-08 -1.57507
C 2.21398 2.32404 3.26225
C 3.07746 -3.32772 0.667961
C 4.3379 0.00045706 1.40229
C 1.33618 1.43902 -4.17165
C 3.79656 2.35129 1.21095
C -2.28833 3.61763 1.67312
C 1.69713 4.01645 -1.387
C 3.20089 1.90592 -2.69008
C 0.500547 -3.42718 3.03473
C -0.825302 2.47346 -3.76835
C 1.58699 1.4087 4.11886
C -0.0685066 3.16128 3.29772
C 0.29498 2.03071 4.15359
C -0.904369 -4.05628 -1.95574
C 2.02804 2.38795 -3.37374
C -3.76052 -1.71843 2.04508
C -2.79952 -3.01508 -2.03586
C -0.640786 1.1016 4.38861
C -0.723142 4.5535 -0.280298
C -1.80214 -2.65281 3.2992
C -0.314444 -1.95645 -4.1521
C 4.42107 1.21474 0.554917
C 1.54461 2.97004e-06 -4.36932
C 0.975585 -2.36674 3.85651
C -4.57592 -0.479527 0.0708085
C 3.2871 1.96851 2.42516
C 4.37125 1.25987 -0.876975
C -2.44659 -3.62644 1.36913
