67

C -4.14202 -0.540756 0.454189
C -3.42623 -2.026 -1.29093
C -2.27347 3.1539 -1.62564
C -0.112931 -4.08937 0.959782
C 2.56335 -2.17565 2.50395
C -1.15728 -2.80458 2.90539
C -1.31727 0.895947 -3.87248
C 0.650165 -3.19451 -2.63247
C 0.251978 2.87813 -3.0519
C 1.96162 -3.60869 -0.82453
C 3.93294 -1.4462 0.276445
C 0.26556 3.70384 -1.9667
C -0.0459135 4.05673 1.04765
C -1.24408 2.92249 2.79463
C -2.31668 2.94978 1.87069
C -1.35473 1.77029 3.51377
C 3.1936 6.31943e-09 2.81197
C -4.117 0.0641077 -0.861016
C 1.37614 -2.97658 2.60864
C -3.11076 -1.58383 2.30238
C 3.55389 0.000281043 -2.26486
C -2.04919 -1.19087 -3.50545
C 2.64114 0.000201914 -3.26653
C -3.18482 -2.46348 1.17663
C -1.44546 -0.45926 3.88746
C -0.951915 4.10336 0.0914876
C 3.2178 -2.42853 1.12897
C -2.83442 3.08869 -0.342281
C -3.62514 2.09079 0.280114
C -3.04038 1.99022 -2.13567
C 1.75022 -1.09966 -3.65178
C 0.182625 -2.69811 3.18497
C -2.23768 0.736535 3.47862
C -2.07199 3.59554 0.667431
C -1.83498 -3.71809 -0.621976
C -1.0028 3.83706 -1.30309
C 1.34132 2.05372e-08 3.92703
C -2.55485 1.09306 -3.13509
C -0.411632 1.93272 -3.69861
C 4.20697 0.00140053 0.366439
C -2.00573 -1.68173 3.29454
C 1.24492e-20 1.65118e-40 4.04002
C -1.24999 -3.6196 1.75747
C -0.453159 -4.15144 -0.44989
C -2.41746 -2.95563 -1.71164
C 1.82152 -2.37669 -2.93759
C 2.30932 -3.43366 0.579746
C -3.26964 0.810404 2.5051
C 0.297136 -1.30225 -3.9761
C 2.34341 -0.887231 3.33692
C 2.53126 -2.80328 -1.81417
C -1.74708 -2.44097 -2.93191
C 4.05708 0.271681 -1.01919
C 1.37857 3.78595 -1.19372
C -0.921171 -0.457862 -4.11849
C 0.64664 -3.91318 -1.33872
C -2.25694 -3.4547 0.767963
C -0.349613 -2.49502 -3.30519
C 3.80364 4.73136e-06 1.6725
C -3.75954 -1.8776 0.0389163
C -3.32021 1.95487 1.64525
C 1.19632 -3.75705 1.41466
C -3.66968 -0.770212 -1.85834
C -3.80825 1.37132 -1.0009
C -0.219689 3.53121 2.21192
C -3.73132 -0.351507 1.84124
C -2.94695 -0.272496 -2.9546
