25

C -0.383848 2.49306 0.840003
C -1.63672 0.555284 -1.99235
C 0.407411 -2.63215 0.0902257
C 1.56535 -2.08324 -0.399361
C 2.04443 0.000631757 -1.70275
C -2.19243 -0.23181 1.41576
C 0.575533 -2.1626 1.40515
C 1.75234 1.22665 1.56774
C 1.35775 9.0783e-15 2.28868
C 2.33714 -1.19697 0.280698
C 0.924162 4.00041e-07 -2.44049
C -0.637855 -1.7637 1.86448
C -1.50326 1.75164 -1.31788
C 1.05259e-18 1.43753e-34 2.56673
C -1.17433 2.36937 -0.196275
C -0.719218 -2.45471 -0.608159
C -2.61409 -0.131734 0.126552
C 2.56935 2.85378e-07 -0.449899
C -0.390382 0.18223 -2.62501
C -1.23858 -0.63273 2.27367
C 1.69776 -1.24812 1.58917
C 0.746833 2.14242 1.43136
C -2.32276 -0.449016 -1.16518
C 2.43777 1.01733 0.393536
C -1.63158 -1.67525 -1.19944
