64

C 1.19316 1.95523 3.08055
C -1.20956 -2.94712 -2.18102
C -0.0530489 3.76996 -0.606562
C 2.24041 2.28248 2.18471
C -2.93761 -1.28605 2.07851
C -2.79026 2.28816 1.23717
C -3.82422 -0.203357 0.0988887
C -0.836346 -1.13031 3.55478
C -3.15291 -0.553099 -2.07198
C -0.690675 -3.74955 -0.235484
C -1.28612 1.81049 -3.11419
C 3.63213 6.96581e-07 1.27002
C 1.27483 0.604091 3.52652
C -3.17784 2.1549 -0.0986464
C 3.0762 -1.48853 -1.7462
C -2.35925 2.01169 -2.24259
C 2.15209 -1.38845 -2.83358
C 2.84199e-16 2.78998e-40 3.74535
C 1.75573 -3.39248 -0.238525
C 3.33337 -1.27522 1.41353
C -2.88224 -2.50434 -0.151623
C 3.05604 0.989475 2.17482
C 0.512388 -3.65399 -0.981581
C 0.512069 3.701 0.813964
C -3.67704 0.959718 -0.595044
C -3.17277 0.880369 -1.9213
C 0.0014627 6.21349e-11 -3.77653
C -3.50617 -0.0860295 1.47224
C 1.74715 -2.588 2.15398
C 1.84945 3.1614 1.1005
C 2.45327 2.01909 -2.13216
C -1.85133 -3.2229 -0.88778
C -1.37069 0.42726 -3.52707
C -1.43248 3.53822 -0.26677
C -2.39283 2.81351 -1.05312
C 2.85818 0.81759 -2.46937
C 1.86242 2.98848 -1.5091
C -2.16526 -0.734971 3.10354
C 0.530987 3.23072 -1.93958
C -3.01992 1.16945 2.07932
C -1.31388 -1.84513 -3.07842
C -0.164643 2.38599 2.98387
C -2.19166 -0.711922 -3.06176
C -2.11518 0.676783 3.05539
C -1.34488 -3.03089 1.87923
C 1.00908 -2.16277 -2.99093
C 0.228545 -3.0893 -2.24907
C -0.435672 3.29103 1.86507
C -0.0734509 -1.39333 -3.55872
C -0.299711 -3.63825 1.10299
C 2.43477 8.09707e-10 3.02635
C 0.91127 1.04037 -3.53983
C 3.46018 0.000139665 -1.57036
C 2.70833 -2.57317 -0.873716
C -0.890838 1.18898 3.54653
C 1.15572 -3.45719 1.17778
C 2.50053 -1.44087 2.49293
C -1.68459 3.26231 1.16178
C 0.144995 2.25939 -3.05351
C 2.31576 3.08676 -0.212953
C -3.50812 -1.28798 -0.82626
C -2.59889 -2.49577 1.32924
C 2.02337 0.00743139 -3.25503
C -0.789271 -2.32574 2.91583
