36

C -0.0530128 1.24771 -2.67735
C -1.71766 -2.37035 0.514182
C 1.4772 -2.58572 -0.0649296
C -1.40417 0.88415 -2.44168
C -0.530507 2.27222 1.79223
C 2.04825 1.99806e-05 -2.19706
C -0.337324 -1.1561 -2.72077
C -2.45478 -1.01618 -1.29677
C -0.408704 -2.86385 0.651609
C 1.93668e-20 4.23974e-39 2.92745
C 2.4247 6.57948e-10 1.75569
C -1.15506 2.57157 -0.888298
C -1.73074 -2.19647 -0.93251
C -2.33651 1.62998 0.735996
C 0.24433 -2.88598 -0.650078
C -0.502735 -2.32604 -1.76557
C -2.74228 1.02164 -0.40555
C 1.39902 1.09972e-18 2.69655
C -2.05024 1.59501 -1.43402
C 0.176459 -2.31712 1.84034
C -1.62198 -0.517462 -2.40459
C 2.78471 6.14604e-06 -1.04973
C -0.590908 -1.33823 2.55012
C 1.43968 -2.25401 1.23654
C 0.744811 2.4257 1.37489
C -1.33246 2.5594 0.55837
C 0.763026 7.56558e-05 -2.8137
C -1.86483 -1.57305 1.70523
C 2.97805 1.65522e-07 0.363974
C -2.15474 0.804959 1.84791
C -2.93916 -0.33498 -0.159351
C -0.00318414 2.38538 -1.7445
C -0.944935 1.10249 2.56685
C 1.4268 2.6335 0.272809
C 1.11826 2.56851 -1.00196
C -2.62199 -0.458851 1.23401
