81

C 2.49241 -2.45473 2.46027
C -3.93413 0.694511 -1.47494
C -1.82803 3.49776 1.53054
C -1.86275 -3.35501 1.88985
C 3.69295 8.42446e-07 2.06873
C -2.94212 -3.05572 -0.203413
C -3.07966 1.39056 2.59436
C 1.81169 2.7024 2.67313
C -2.17475 0.789056 3.59056
C -4.13831 0.119007 0.826639
C 1.61523 3.94553 0.226628
C -0.671918 4.17087 -0.447492
C 4.09926 0.000359118 -1.15759
C -2.80397 -2.78302 -1.55512
C 1.3329 0.00209338 -4.0129
C 6.20666e-23 1.0777e-35 4.20001
C 1.23068 1.53252e-13 4.07925
C 1.7992 -3.32036 -1.93062
C -0.94479 -4.11525 -0.46046
C -1.51774 -3.55846 -1.73915
C -0.761436 -3.08256 -2.80282
C 3.44194 -1.43665 1.98547
C 4.23623 5.4278e-05 0.139248
C -0.454416 3.8009 -1.78162
C 0.00531216 1.47168e-15 -4.30645
C 4.01286 0.896126 1.11602
C -2.92526 2.55756 1.72215
C -0.747238 2.22987 -3.5065
C 0.0117811 -2.43731 3.47242
C -0.399778 3.83512 1.81873
C 1.9874 -3.43749 1.51118
C -3.27518 -1.59462 -2.20303
C 1.49676 -3.93219 -0.66961
C -3.98374 -0.735013 -1.2882
C -3.14907 1.30305 -2.53064
C -1.92571 -3.7468 0.52578
C 3.51235 0.0270862 -2.31994
C -1.11397 0.915253 -3.99357
C 0.598458 -3.94263 1.52763
C 0.907346 3.58303 -2.13584
C 0.961637 -1.98316 -3.63018
C 0.338706 -4.21155 0.0900921
C -1.36727 -1.95712 -3.52399
C 0.275831 4.22766 0.610895
C -4.08674 1.19194 -0.11586
C -0.310635 2.27469 3.58227
C 3.04301 -1.25572 -2.68191
C -2.66116 2.61726 -2.0029
C -2.43132 0.385805 -3.48096
C -3.06535 -1.09457 2.70234
C 2.23041 3.39206 1.40919
C 0.506242 2.71824 -3.16665
C 2.56226 -3.41926 0.167595
C -3.58167 -2.20822 0.686647
C -0.479957 -3.40439 2.46049
C 2.32883 1.48308 3.29678
C 2.02398 -1.08435 -3.56411
C 1.36799 -2.3105 3.27403
C 2.32604 5.27069e-06 3.54225
C 3.07043 2.50879 -1.48952
C -2.93583 -2.36449 1.9485
C 2.97567 -2.44966 -1.78525
C 0.383258 3.13648 2.7925
C 3.20018 1.42195 -2.40123
C -0.837402 1.11733 3.97459
C 3.60097 2.33615 -0.288527
C -3.53366 2.387 0.326863
C -2.81767 3.10208 -0.677494
C -0.7425 -1.26577 3.94717
C -1.91141 3.80306 0.105522
C 0.661505 -3.09643 -2.829
C -4.1261 -1.07823 0.10132
C 3.14434 2.66897 0.870911
C -3.65909 0.0616989 2.12515
C -1.41392 3.09668 -2.57322
C -2.47187 -1.08632 -3.27996
C -0.194392 -1.3451 -4.03812
C 3.95525 -1.4466 0.564215
C -2.02664 -0.642942 3.64371
C 2.04274 3.54852 -1.21282
C 3.44351 -2.43509 -0.416736
