53

C 1.41743 -2.93998 1.58688
C 1.1645 3.38797 -0.0238714
C 2.3492 5.60255e-06 2.73562
C -2.35264 2.06147 -1.79947
C -0.474205 -1.32095 -3.3092
C -1.39583 -2.04208 -2.65319
C -2.84755 -2.18877 -0.0718375
C 2.33295e-20 3.17779e-45 3.63214
C -2.28252 0.120572 -2.76126
C -3.22643 -1.2462 -1.03989
C 0.00646498 1.45203e-09 -3.56073
C -3.025 0.86756 -1.7704
C 1.46478 2.37499 -2.34364
C 2.17239 1.01023 -2.69916
C 3.6052 6.32871e-09 0.566188
C -0.220409 2.47899 2.65198
C 1.3518 0.000763126 -3.3212
C 3.35742 -1.37165 0.198301
C 0.284124 -3.50138 0.865334
C -1.77585 -2.59324 1.80078
C -3.17743 -0.359431 1.67381
C -0.846518 -2.0823 2.79204
C -1.17994 -0.805043 3.3175
C -0.854964 3.34716 -0.959846
C 2.40377 -2.2893 -1.41792
C 1.79375 3.02097 -1.12942
C -0.563906 1.29683 3.29297
C -2.32698 0.0376986 2.77878
C -1.09471 -3.35184 0.793675
C -0.209851 3.56224 0.339222
C -3.51416 0.755343 0.658923
C -2.19668 2.7762 -0.599611
C 1.53709 -1.26334 -3.00293
C -0.822629 3.14709 1.54831
C -1.81397 -3.08907 -0.432197
C 1.30193 2.11377e-15 3.44208
C 3.19323 -1.15937 -1.24119
C 3.01767 0.00019673 -2.04369
C -0.0690532 2.83506 -2.20401
C 3.13947 7.26425e-05 1.74547
C -2.85592 -1.7771 1.2764
C -1.89876 1.36473 2.74122
C -2.06716 2.37809 1.72017
C -2.8644 2.13512 0.564692
C 1.40209 -2.41612 -2.29875
C -1.14848 0.759834 -3.36565
C -2.50613 -1.2317 -2.30398
C 2.55043 -2.34375 0.973836
C 0.535977 -2.44148 2.59336
C 0.311976 -3.08228 -1.87132
C -1.24206 2.0618 -2.66969
C -1.08006 -3.00573 -1.68844
C -3.55097 0.107446 -0.630477
