46

C 0.188998 -2.46095 -2.01029
C -2.91785 -0.197338 1.19453
C -2.1797 0.338936 -2.28809
C -2.88776 -0.420226 -1.22954
C -0.192499 1.39636 2.85891
C 1.17065 -0.538775 -2.91454
C 2.78499 -1.47974 0.138715
C -1.54702 1.5517 2.32613
C -0.471432 3.05013 0.726924
C 1.02151 1.93494 2.25183
C 0.950952 2.8174 1.07822
C 1.90487 -2.24338 1.10522
C 1.82087 0.67025 -2.4694
C 2.82392 1.43612 -0.00287087
C -1.69456 2.37831 1.1433
C 1.29672e-15 3.02577e-36 3.32951
C -1.233 -0.512976 -2.84921
C 1.26994 2.17953e-07 2.92541
C 0.00392618 1.40652e-08 -3.20445
C 2.68063 8.43238e-06 -1.66197
C -1.56455 -2.73298 -0.447219
C -2.49793 1.94424 -0.0212474
C -1.67125 2.45502 -1.14409
C 1.89184 2.54543 -0.0570836
C -1.70182 -2.5067 0.919371
C 2.01676 0.921667 2.32438
C -0.401154 3.0469 -0.726102
C -0.484554 -2.74144 1.5162
C 2.54606 -1.3568 -1.33783
C 1.04386 1.882 -2.33411
C -1.53844 1.60256 -2.27725
C 0.656063 -3.01264 0.65782
C 1.43229 -1.75455 -2.23642
C 1.35746 -1.513 2.46513
C 3.15382 1.41411e-05 0.306548
C 0.963793 2.76566 -1.18106
C -0.114015 -1.85686 2.54841
C -1.09248 -1.86504 -2.32652
C -3.11513 0.564745 -0.107997
C -2.53854 -1.51919 1.1942
C -2.2157 -1.77556 -1.39858
C 2.77128 2.43624e-05 1.57887
C -1.0425 -0.777566 2.86302
C -0.166311 -3.11954 -0.642074
C -2.09876 0.189952 2.40464
C -0.238825 1.37793 -2.8513
