94

C 0.107128 -3.62602 2.76994
C -4.04528 -1.33109 -1.59711
C 2.03154 -3.90536 -1.2704
C -1.55759 -3.88765 -1.80616
C -2.60069 -3.06929 -2.16446
C -1.81704 4.17658 0.235359
C -3.59154 -2.54391 -1.25732
C 0.837139 -4.43388 -0.664628
C 0.466892 -3.56783 -2.81372
C -2.57141 -3.27083 1.85761
C 1.53064 0.00390253 -4.33996
C -4.53143 -0.0971391 0.528145
C -2.73242 3.14067 -1.88786
C -2.27549 0.407841 -3.94142
C 3.72111 1.17198 2.404
C -0.298966 -2.75307 -3.64017
C -2.6826 0.894863 3.5605
C -2.21343 -0.421402 3.97784
C 2.51446 -0.817775 -3.72294
C 4.0618 -0.685237 -1.9636
C 4.24026 1.1278 1.13867
C -4.06413 0.957046 -1.87501
C -2.88102 3.38733 0.906369
C 1.50199e-29 6.01997e-44 4.63877
C -0.376021 4.27504 -1.58024
C 0.796079 2.10778 -3.99504
C -3.83103 2.45748 0.340557
C 1.50522 -3.30746 2.7777
C -1.6196 -4.04356 1.27351
C -1.63876 1.86197 3.82479
C -3.42453 -1.09534 -2.78594
C 2.19602 -2.22316 3.37835
C -4.21762 1.22623 1.16312
C 4.5527 7.76149e-05 0.446028
C 2.31557 0.754734 3.84713
C 1.84961 -3.29501 -2.55321
C -2.17518 2.60774 -3.05972
C 2.9967 -3.40295 -0.353444
C -0.0426791 3.46821 2.93283
C 3.63888 -1.95092 -1.93252
C 2.6886 -2.1611 -3.01169
C 1.36061 7.34724e-06 4.4643
C -4.17328 -1.30123 1.27153
C 0.424626 4.51033 -0.43047
C -2.80681 -1.42686 3.25877
C -4.46907 -0.115973 -0.933858
C -2.5127 -2.08382 -3.19064
C -1.76042 4.02595 -1.21504
C 3.866 -2.32806 -0.624456
C 4.2996 -1.4414 0.469601
C 0.104753 1.92544e-11 -4.55689
C -0.435685 4.49121 0.706314
C 0.621834 2.50535 3.80966
C 1.96491 2.0998 3.53799
C 2.9685 2.34049 2.53052
C -0.189877 -4.21397 -1.74523
C 3.44605 0.000101864 -2.96972
C 1.89204 3.95606 1.12738
C 0.817099 -4.42036 0.744801
C 3.29044 3.97289e-07 3.11243
C -0.954793 -0.889682 4.37294
C -3.41653 -3.03258 -0.0632195
C 3.27446 -1.43766 2.801
C -1.47228 3.03585 3.05947
C 3.09509 3.09525 1.32127
C -1.35894 -1.90894 -3.92356
C 4.47119 0.000571938 -0.925827
C 2.52624 3.60215 -1.3229
C 1.42895 2.98205 -3.14531
C -3.76387 0.675975 2.49924
C -2.15125 -2.63016 3.03562
C -0.31249 1.44294 4.30362
C -0.82823 -2.87379 3.41623
C 0.510577 4.13338 1.77989
C 3.01113 -3.25188 1.0831
C 1.80973 4.18788 -0.328931
C -3.72105 2.32896 -1.2089
C -3.77583 -0.742569 2.48097
C -0.0352025 -1.96334 4.16402
C -2.50875 3.1471 2.20426
C -1.24972 -0.549267 -4.36521
C 0.388959 3.72604 -2.58641
C -3.40767 0.245554 -3.01789
C -0.275965 1.40563 -4.34456
C 2.7008 2.74145 -2.45773
C 3.5698 1.50774 -2.41478
C -1.60292 1.65427 -3.91746
C 3.96771 2.26961 0.314554
C 1.8664 -3.87295 1.52964
C -0.322206 -4.26028 1.56199
C 4.20298 1.51452 -1.06361
C 3.68612 -2.11692 1.6371
C 1.3231 -1.43198 4.15444
C -3.58345 -2.58003 1.1681
