58

C -0.495552 3.40037 -1.20756
C 1.96563 3.0345 -0.690574
C -2.78003 1.61323 1.64282
C 2.76953 -2.29062 -0.589056
C 1.42181 1.40354e-10 3.36209
C 0.905094 3.11327 -1.67981
C -2.20063 -1.47793 -2.49752
C 2.10641 1.94323e-05 -2.9468
C 1.48485 -2.53832 -2.14145
C -2.98027 -1.92324 0.842642
C -1.27063 0.665492 3.36629
C 0.00199019 -2.62854 2.5125
C -2.62031 -2.49106 -0.405282
C -0.528908 2.66942 2.46243
C -0.69111 3.57255 0.168609
C -3.01768 -1.54706 -1.31668
C -3.15353 0.26372 1.79769
C 1.69234 -3.11833 -0.789811
C 0.230163 -1.25194 -3.40792
C 0.559938 2.20085 -2.82577
C 3.19917 -1.16203 -1.31333
C 0.937937 -3.49683 0.390615
C 3.6106 0.000210726 -0.725022
C 0.00963182 3.40258 1.39081
C -1.25645 -2.58564 -2.21683
C -1.67466 1.83414 2.62216
C -2.097 -2.33353 1.81896
C -0.953387 -3.14434 1.58142
C -3.52514 -0.57627 0.736535
C 2.74175 1.52851 1.78721
C 2.38102 -0.805723 2.65267
C -2.86096 2.23255 0.315586
C 1.76588 1.32807 2.84898
C 3.56963 1.47602e-05 0.585956
C -1.85891 3.08228 0.534346
C 2.13869 -2.03573 2.11968
C -1.76806 -1.44704 2.83415
C 1.18037 -2.96108 1.75819
C 0.00547822 3.47203e-10 -3.62799
C 0.135078 -2.40452 -2.71188
C -3.53823 -0.359998 -0.725106
C -0.425232 -1.47409 3.29806
C -1.46369 -3.19268 -0.853258
C -2.82385 1.99187 -1.14369
C -2.4024 -0.052028 -2.7647
C -0.536668 -3.58937 0.217515
C 1.10296 0.878189 -3.34448
C -1.25965 0.706107 -3.33782
C -1.63123 2.6655 -1.78891
C 2.38189 2.63499 0.687696
C 2.3325 -1.32732 -2.47021
C -3.14233 0.691128 -1.70707
C 3.13999 1.11421e-08 1.84346
C -0.924756 2.04152 -2.86595
C 1.00888e-22 4.48164e-31 3.58671
C 1.32742 3.14999 1.38162
C -2.31983 -0.16887 2.83085
C 0.643925 2.08944 2.96218
