49

C -2.19087 1.38563 -2.24084
C -1.83417 -1.04285 -2.64908
C -1.19848 0.564719 3.15388
C 0.0272741 2.78286 1.93666
C 0.838509 4.33994e-06 -3.30973
C 3.06073 0.00119463 1.4581
C -2.78657 -1.26782 -1.53795
C -2.98308 1.25495 -1.04921
C 0.95587 2.81564 -1.71684
C -3.33036 -0.54863 0.537682
C -2.77479 -1.84569 0.775345
C 1.28662 7.34996e-12 3.24887
C 0.466672 -2.64022 2.10912
C 2.77714 6.33914e-05 -2.01946
C 0.657324 -1.35544 -3.06096
C 2.17751 2.56542 0.474677
C 1.4685 2.61592 1.68761
C 1.01092 3.25308 -0.287005
C 2.29722 9.69005e-05 2.45334
C -2.94317 0.0197047 1.73196
C 1.09618 -3.23823 -0.204386
C -0.045126 2.24091 -2.58312
C -0.317879 -3.4096 0.37528
C -2.50329 2.3295 -0.279865
C 3.09228 -1.41495 -0.307902
C 1.71651 -2.48176 1.61106
C -1.28827 2.38998 -2.07917
C 1.9104 0.719828 -2.73727
C 3.0879 1.48622 0.0712261
C -1.28481 -3.10249 -0.698283
C 2.2795 -2.54101 0.321952
C -1.95743 -1.9552 2.0002
C -0.497996 -2.85513 -1.83109
C -0.216878 3.37928 0.598038
C 0.852732 -2.93439 -1.5438
C 3.38409 1.05254e-05 0.172966
C -0.835965 -2.8708 1.67903
C -0.278217 0.95707 -3.31096
C -0.696352 -1.84133 -2.76894
C -2.04862 -0.558445 2.63935
C -2.46516 -2.31771 -0.543448
C -1.51393 3.03611 0.219702
C -3.35808 -0.108663 -0.80376
C 7.19118e-16 1.16237e-37 3.39596
C -0.838085 1.93045 2.72176
C 1.61886 -2.03103 -2.25468
C 2.68931 -1.30362 -1.67071
C -1.56528 0.339033 -3.01382
C 1.88554 1.91005 -2.13307
