63

C 2.54743e-13 5.68546e-28 3.77824
C 1.99523 -3.00949 -1.12255
C 1.92419 1.34658 2.91515
C -1.92427 -3.10903 0.890066
C 2.7452 -2.17019 1.38233
C -3.49848 -1.2727 0.59374
C -0.695566 -3.41228 1.49321
C -1.63702 -2.86343 -1.83636
C -2.43123 -0.0921684 2.87876
C 0.623075 -2.28045 -2.92449
C 2.13723 1.54118 -2.73027
C 1.98831 4.40837e-07 -3.21166
C -2.42763 1.2412 -2.58754
C -3.67896 0.178482 0.720157
C 2.43586 2.15834 1.87539
C 2.05884 3.19513 -0.140662
C -1.43975 1.83471 2.96844
C 1.13934 -0.850565 3.51879
C -3.16126 -1.00615 -1.79016
C -0.0366294 -1.23432 -3.5464
C 1.63522 -2.89893 1.77659
C 0.391315 -3.00133 2.24995
C 1.93907 -2.20374 -2.33368
C -2.27461 -2.93178 -0.522718
C 2.28977 1.16998e-09 2.94918
C -1.31093 0.493372 3.48819
C -3.21833 -1.8508 -0.661028
C -0.24514 -3.10025 -2.1114
C 0.275281 -1.94155 3.20424
C 3.03024 2.1495 -0.381045
C 2.66273 -2.65851 0.0407426
C -0.276687 1.01065 -3.62576
C -2.47285 2.01404 1.98539
C -1.55799 0.429573 -3.39764
C -0.190351 2.43311 2.86408
C -1.07397 -1.83476 3.12627
C 1.14133 2.63752 -2.43034
C -2.15331 2.94793 0.933879
C 0.60745 1.3826 3.48362
C -0.808867 3.59873 0.795446
C -2.99642 2.2764 0.0225156
C 2.68709 -0.992264 -2.45924
C 0.678976 0.000256891 -3.66472
C 3.81708 5.5733e-05 -0.365264
C 3.31444 1.49982 0.95126
C 1.62406 3.17947 1.28729
C 1.0488 3.45463 -1.18973
C -3.12028 0.737675 1.95064
C -2.28875 -1.45032 2.60496
C -2.18941 -1.72369 -2.54975
C 0.244991 3.30402 1.79781
C -1.36937 -0.974774 -3.37167
C -3.57106 1.06638 -0.423453
C 3.06144 1.43961 -1.58844
C 3.09794 -0.87556 1.95928
C 3.3625 0.000292547 -1.67567
C 0.668831 -3.50624 -1.18964
C -1.48212 2.27351 -2.59055
C -3.30502 0.467236 -1.74588
C -0.153476 2.29306 -2.9725
C 3.63915 0.00133578 0.982204
C -0.126844 3.70881 -0.490145
C -2.75498 -2.10927 1.48312
